Test_Network/condensed/network_10/Feeder_5/Lines.txt
New Line.LINE116 Bus1=114 Bus2=117 phases=3 Linecode=3c_300_SAC_ASN Length=9.9833 Units=m
New Line.LINE145 Bus1=145 Bus2=146 phases=3 Linecode=4c_300_SAC Length=0.51185 Units=m
New Line.LINE265 Bus1=261 Bus2=266 phases=3 Linecode=185_SAC_PC Length=0.945 Units=m
New Line.LINE270 Bus1=266 Bus2=271 phases=3 Linecode=25_SAC_XC Length=22.0878 Units=m
New Line.LINE271 Bus1=266 Bus2=272 phases=3 Linecode=25_SAC_XC Length=17.8821 Units=m
New Line.LINE272 Bus1=266 Bus2=273 phases=3 Linecode=25_SAC_XC Length=17.8821 Units=m
New Line.LINE273 Bus1=266 Bus2=274 phases=3 Linecode=25_SAC_XC Length=17.8821 Units=m
New Line.LINE274 Bus1=266 Bus2=275 phases=3 Linecode=25_SAC_XC Length=17.8821 Units=m
New Line.LINE275 Bus1=266 Bus2=276 phases=3 Linecode=25_SAC_XC Length=17.8821 Units=m
New Line.LINE297 Bus1=293 Bus2=298 phases=3 Linecode=25_SAC_XC Length=16.7103 Units=m
New Line.LINE298 Bus1=293 Bus2=299 phases=3 Linecode=25_SAC_XC Length=16.7103 Units=m
New Line.LINE299 Bus1=293 Bus2=300 phases=3 Linecode=25_SAC_XC Length=16.7103 Units=m
New Line.LINE300 Bus1=293 Bus2=301 phases=3 Linecode=25_SAC_XC Length=16.7103 Units=m
New Line.LINE311 Bus1=307 Bus2=312 phases=3 Linecode=25_SAC_XC Length=7.4638 Units=m
New Line.LINECmpd_0 Bus1=117 Bus2=145 phases=3 Linecode=4c_.5 Length=57.66968 Units=m
New Line.LINECmpd_1 Bus1=48 Bus2=114 phases=3 Linecode=4c_.5 Length=50.37689 Units=m
New Line.LINECmpd_2 Bus1=146 Bus2=212 phases=3 Linecode=4c_120_SAC Length=3.053366 Units=m
New Line.LINECmpd_3 Bus1=1 Bus2=29 phases=3 Linecode=3c_300_SAC_XC Length=31.403685 Units=m
New Line.LINECmpd_4 Bus1=212 Bus2=261 phases=3 Linecode=4c_.12 Length=19.459 Units=m
New Line.LINECmpd_5 Bus1=29 Bus2=48 phases=3 Linecode=4c_300_SAC Length=6.206393 Units=m
New Line.LINECmpd_6 Bus1=261 Bus2=293 phases=3 Linecode=4c_.12 Length=25.16154 Units=m
New Line.LINECmpd_7 Bus1=293 Bus2=307 phases=3 Linecode=4c_.12 Length=14.944 Units=m
